12
Energy=-146536.1068
C       0.0     1.397   0.0     4.7384784e-11   -3.8259648      -6.717196799999999e-13
C       1.2098  0.6985  0.0     -3.249288       -1.9418976000000001     -3.4314912e-13
C       1.2098  -0.6985 0.0     -3.249288       1.9418976000000001      6.6741696e-13
C       0.0     -1.397  0.0     2.8316879999999998e-11  3.8259648       -1.7098128e-12
C       -1.2098 -0.6985 0.0     3.249288        1.9418976000000001      9.378431999999998e-13
C       -1.2098 0.6985  0.0     3.249288        -1.9418976000000001     -1.7085167999999998e-12
H       0.0     2.481   0.0     -1.12612032e-11 6.0447456       6.7398336e-13
H       2.1486  1.2405  0.0     5.2187472       3.012624        4.1946912e-14
H       2.1486  -1.2405 0.0     5.2187472       -3.012624       4.7321136e-13
H       0.0     -2.481  0.0     -4.1629392e-12  -6.0447456      5.071233600000001e-13
H       -2.1486 -1.2405 0.0     -5.2187472      -3.012624       7.202952e-14
H       -2.1486 1.2405  0.0     -5.2187472      3.012624        1.05965424e-12
12
Energy=-146536.1192
C       -0.000771282    1.39733 -0.000437433    1.1106864       -3.4884288      0.5646744
C       1.20963 0.698481        0.000370338     -2.458944       -1.13021712     0.118552608
C       1.20992 -0.69793        -0.000293209    -2.2745376      0.12234614399999999     -0.32253119999999996
C       -0.00115878     -1.39602        -0.00091245     1.6634304       4.6594224       -0.17886816
C       -1.2098 -0.697562       -0.000118399    3.178368        0.81592416      -0.14734368
C       -1.20991        0.697492        0.000703967     1.0322424       1.5369263999999998      -0.33033888
H       0.00412187      2.4822  0.00260728      -0.62877456     5.28912 -0.16157808
H       2.15077 1.23943 0.00268918      4.0228128000000005      2.6953056       -0.12738888
H       2.15099 -1.24169        -0.00522283     3.2154624       -1.8968112000000001     0.22613039999999998
H       -0.00154452     -2.47843        -0.00557706     0.015769584     -7.3362096      0.113925168
H       -2.14758        -1.2398 -0.00367667     -5.8084272      -3.2549759999999996     0.129719232
H       -2.15217        1.23957 -0.00147171     -3.0680928      1.9875887999999997      0.11504592
12
Energy=-146536.09900000002
C       -0.00155763     1.39765 -0.0008835      2.2425552       -3.0491424      1.14397344
C       1.20946 0.69846 0.000748827     -1.591344       -0.27068832     0.24251184
C       1.21004 -0.697347       -0.000593193    -1.2465403199999998     -1.7527824      -0.66841344
C       -0.0023402      -1.39502        -0.00184482     3.3623279999999998      5.3928288       -0.3549312
C       -1.20979        -0.696603       -0.000239557    3.0111263999999998      -0.39755376     -0.29663712
C       -1.21001        0.696464        0.00142264      -1.24411824     5.1038928       -0.6709463999999999
H       0.00832204      2.48352 0.00526806      -1.27301184     4.4296272       -0.329724
H       2.15305 1.23839 0.0054342       2.7470592       2.3423616       -0.26209872
H       2.15348 -1.24293        -0.0105545      1.1458022399999999      -0.74105712     0.47510351999999995
H       -0.00312206     -2.47592        -0.0112724      0.031553712     -8.545463999999999      0.22120272
H       -2.14663        -1.23913        -0.00743041     -6.3234576      -3.4531056      0.25929504
H       -2.15587        1.23866 -0.00297322     -0.86195088     0.9410889599999999      0.2406672
