42
Energy=-620726.002662 Properties=species:S:1:pos:R:3:forces:R:3
H  2.04866   3.0397   -1.90538    1.07102    1.79039   -3.86023  
H  2.57508   1.72268  -0.856315   2.84402   -2.96263   -0.0142256
H  2.17184   3.30896  -0.152382   1.53296    2.96371    2.71665  
C  1.90655   2.58401  -0.92348   -2.08051    1.07469    1.39184  
O  0.037714  1.25465  -1.59488   -7.37589  -14.1189   -13.5453   
C  0.483967  2.10062  -0.827513   7.2537     7.89589    5.76582  
N -0.289728  2.66225   0.136071  -2.07218    1.85364    0.694624 
H  0.161037  3.23064   0.832326   2.81534    4.46252    4.71162  
C -1.66536   2.24227   0.388567  -2.36697   -1.01641   -4.19685  
H -1.9808    2.78577   1.282     -1.31581    2.51807    4.05799  
C -2.60093   2.60713  -0.760946   1.15256   -0.171011   1.87019  
C -1.65737   0.769353  0.840767  -5.45406    5.32318  -11.1952   
O -1.07671   0.464849  1.87157   10.5954    -5.17572   19.7287   
H -3.62795   2.3159   -0.527314  -3.573     -1.03813    0.866013 
H -2.58345   3.68786  -0.912033  -0.352231   4.24949   -1.02164  
H -2.28934   2.13627  -1.69468    1.04906   -1.80402   -3.31513  
N -2.28796  -0.137832  0.065975  -2.48152   -2.74256    0.449504 
H -2.61433   0.150844 -0.842711  -2.84067    2.00394   -6.16763  
C -2.21633  -1.56248   0.355258  -1.28905    1.07764   -4.90234  
H -2.49106  -1.71026   1.40128   -0.998539  -0.473342   5.00604  
C -3.17539  -2.32986  -0.547194   0.922099   1.59903    1.40745  
C -0.796612 -2.1518    0.244173  -3.51395   10.7386    -5.0193   
O -0.545385 -3.20721   0.795462   4.1304   -19.9338    10.4715   
H -3.09773  -3.39555  -0.33182    0.329866  -4.02778    0.824023 
H -4.20586  -2.01059  -0.375903  -4.09319    0.947896   0.409482 
H -2.92852  -2.17659  -1.60274    0.851763   0.49902   -3.6669   
N  0.085186 -1.43854  -0.489616   2.41805   -1.54436   -1.1819   
H -0.203936 -0.57022  -0.92587   -1.32909    7.18436   -2.62811  
C  1.4937   -1.76346  -0.597477  -1.65124    2.50624   -2.3156   
H  1.62352  -2.74612  -0.134396  -0.359077  -5.06941    2.24915  
C  1.93595  -1.80971  -2.05523   -0.771578  -0.340669   1.62774  
C  2.37375  -0.79291   0.212842 -10.8293    -2.80946    0.586725 
O  3.55545  -0.639111 -0.056601  20.9716     2.35375   -5.01711  
H  3.00626  -2.00417  -2.11517    4.06376   -0.583674  -0.0855121
H  1.39238  -2.59759  -2.5804    -1.72557   -2.80362   -2.07109  
H  1.73079  -0.853384 -2.54426   -0.650098   3.19667   -1.91112  
N  1.77244  -0.143217  1.23186    1.14425    1.57672    3.41085  
H  0.795387 -0.298277  1.437     -7.46748   -0.627081   1.41997  
C  2.52442   0.707989  2.12658   -2.09797   -1.1736    -1.21012  
H  3.17617   0.124743  2.7838     3.10193   -1.95027    2.9142   
H  3.1563    1.39339   1.55717    2.92235    2.44153   -1.82299  
H  1.81944   1.27508   2.73527   -2.48106    2.1095     2.56838  
42
Energy=-620720.038583 Properties=species:S:1:pos:R:3:forces:R:3
H  2.0348     3.02967  -1.8973      4.41709    3.1353    -4.77802  
H  2.55448    1.73455  -0.843973   19.8546   -24.6354     1.0901   
H  2.16899    3.29891  -0.142577    3.14587    5.63814    4.22554  
C  1.91628    2.57611  -0.913617  -27.047     19.6159    -2.43059  
O  0.0399603  1.258    -1.5947    -10.6794   -19.7641   -20.5588   
C  0.479627   2.10471  -0.831554   17.7393     6.44706    9.21793  
N -0.286196   2.65069   0.135066    1.46723   16.0084    11.1794   
H  0.174831   3.23916   0.820298   -2.46387   -0.456984  -0.553255 
C -1.66284    2.25487   0.384282   -2.27676  -11.9047     0.919142 
H -1.98989    2.79262   1.2715      0.373496   3.73609    7.73392  
C -2.59155    2.60717  -0.748935  -31.8506   -18.1153     1.69045  
C -1.66358    0.77643   0.824271    8.98404    0.384024  18.2522   
O -1.08031    0.465208  1.87485    -2.43011    2.12832   -5.96538  
H -3.65541    2.28027  -0.533671   21.9698     5.41542   -1.69361  
H -2.62303    3.66607  -0.891876    0.517307  22.3777    -3.33377  
H -2.28003    2.15254  -1.68176     3.40351   -3.96047   -8.84724  
N -2.29125   -0.132189  0.0583084 -10.8862    -1.11753  -16.8305   
H -2.62958    0.154566 -0.871745    4.0356    -3.71064   13.3813   
C -2.21705   -1.55658   0.344771    2.5803    -9.07933    4.88095  
H -2.47489   -1.77103   1.39504    -0.543767   9.48554   -0.858612 
C -3.18311   -2.32409  -0.539869   42.2951   -17.8757   -18.0962   
C -0.787913  -2.15311   0.23648   -20.5241     1.00516    4.62098  
O -0.54859   -3.20851   0.799974    4.37331  -15.9617     8.56101  
H -3.12313   -3.39974  -0.324903    3.95303    1.9415    -0.0274546
H -4.1681    -2.0352   -0.37046   -46.1927    16.725      6.77373  
H -2.92817   -2.17954  -1.60881    -2.96112   -1.16136    4.55229  
N  0.0806417 -1.4519   -0.488919   11.8258    17.0819   -14.9277   
H -0.209174  -0.583923 -0.949877    0.490246  -0.892285   2.70638  
C  1.48628   -1.76548  -0.595675    7.83858    8.79569   -3.27748  
H  1.64418   -2.72304  -0.109692   -1.86134  -12.9307     2.05846  
C  1.93332   -1.81054  -2.05685     0.671807 -19.58       8.33091  
C  2.37312   -0.793969  0.218605   11.0934     0.922644 -13.1157   
O  3.56674   -0.630936 -0.0585581  -0.834347  -2.8154    -0.0958462
H  3.00702   -2.02798  -2.10327    -0.767791   4.17552   -1.18302  
H  1.39574   -2.62064  -2.57375     0.265354   2.72351    0.378415 
H  1.70884   -0.869662 -2.53697     0.063304  11.4237    -7.61164  
N  1.77972   -0.145823  1.22983    17.378      5.69478    8.62487  
H  0.815476  -0.276139  1.42364   -27.2337    -4.51941    5.02244  
C  2.51702    0.70939   2.1312      5.11592  -23.7516     2.97059  
H  3.18885    0.171374  2.81542    -0.715854  -6.70747   -1.78879  
H  3.13393    1.38893   1.59566    15.1663    18.483    -16.2152   
H  1.81983    1.24024   2.72867   -19.7497    15.5957    15.0177   
42
Energy=-620707.861537 Properties=species:S:1:pos:R:3:forces:R:3
H  2.02245    3.0207   -1.89103     7.56126    3.49326  -3.96499  
H  2.54171    1.73635  -0.830858   31.3344   -39.7803    1.83009  
H  2.1674     3.29098  -0.130743    4.22419    6.67593   4.21423  
C  1.92531    2.5687   -0.903587  -45.3767    34.4625   -6.25409  
O  0.0419809  1.26092  -1.59506   -13.2301   -24.0183  -26.3681   
C  0.475802   2.10913  -0.835373   27.1528     3.48369  11.3653   
N -0.282529   2.63932   0.134373    4.542     29.654    20.9252   
H  0.18794    3.2477    0.807731   -7.31338   -5.04168  -4.80947  
C -1.66033    2.26737   0.37992    -2.04692  -21.2891    8.83371  
H -1.99906    2.80123   1.26398     2.71136    3.6266    9.33629  
C -2.58305    2.60656  -0.736558  -54.3837   -27.0175   -5.77385  
C -1.66964    0.783701  0.807997   20.95      -4.10711  43.8818   
O -1.08406    0.465632  1.87806   -13.1811     8.36435 -28.2366   
H -3.67433    2.24601  -0.540902   38.0587     9.90787  -1.85929  
H -2.6634     3.65313  -0.872607    0.59598   31.9716   -4.45098  
H -2.26905    2.16755  -1.67224     4.62455   -4.4239  -11.5672   
N -2.29495   -0.126437  0.0499366 -16.2383    -1.39877 -27.1395   
H -2.64352    0.156823 -0.895892    8.52408   -7.03312  25.9443   
C -2.21769   -1.55085   0.334189    5.72198  -19.0867   15.4417   
H -2.45853   -1.82935   1.38828    -0.122642  19.4697   -7.08707  
C -3.18953   -2.31881  -0.532995   72.692    -32.9587  -34.0659   
C -0.779717  -2.15442   0.228753  -37.7456   -10.9031   15.9446   
O -0.551761  -3.21026   0.804827    4.31691  -10.8182    5.90836  
H -3.14751   -3.40322  -0.317821    7.41045    6.93911  -0.676361 
H -4.14881   -2.0534   -0.362029  -77.5278    28.2254   11.6411   
H -2.92905   -2.18306  -1.61311    -6.46157   -2.20076  10.5561   
N  0.0763394 -1.46509  -0.488657   22.3443    35.0367  -29.1499   
H -0.21434   -0.598351 -0.973358    2.0346    -7.6046    7.68103  
C  1.47896   -1.76724  -0.593942   17.714     10.8207   -2.63613  
H  1.66458   -2.70481  -0.0834909  -3.86741  -16.4487    0.0818344
C  1.93064   -1.81208  -2.05822     1.80533  -34.4595   13.5096   
C  2.37287   -0.795023  0.224053   30.8062     4.31624 -26.3604   
O  3.5783    -0.622627 -0.0605678 -20.1913    -7.85115   4.32252  
H  3.00747   -2.05063  -2.09157    -5.20633    8.84977  -2.39265  
H  1.39931   -2.64314  -2.56676     1.79087    7.80603   2.31393  
H  1.68636   -0.88155  -2.53269     1.26188   15.8131  -11.2639   
N  1.78772   -0.148322  1.228      21.1136     7.93635  16.329    
H  0.824622  -0.255337  1.41206   -34.8202    -6.11589   5.98344  
C  2.50961    0.709988  2.13605    12.6873   -37.8308    8.16487  
H  3.20154    0.216374  2.84709    -5.2229   -10.5864   -7.22122  
H  3.11737    1.39214   1.62831    22.6843    30.0211  -25.9231   
H  1.81193    1.21108   2.72822   -31.7273    24.1004   22.9917   
42
Energy=-620699.602163 Properties=species:S:1:pos:R:3:forces:R:3
H  2.01283    3.01287  -1.8862     10.4662     2.99671  -1.78241 
H  2.54172    1.72138  -0.816466   29.5917   -37.3569    1.21726 
H  2.16754    3.28558  -0.116673    4.71655    5.81895   2.54107 
C  1.93307    2.56224  -0.893397  -49.1556    34.6949   -8.56907 
O  0.043726   1.26331  -1.59613   -14.7563   -26.301   -30.4359  
C  0.472796   2.11384  -0.838934   34.8551    -1.28532  11.9049  
N -0.278584   2.62842   0.134292    5.65785   40.4305   27.609   
H  0.198454   3.25443   0.792647  -10.1702    -7.27374  -6.01325 
C -1.6578     2.27959   0.375705   -1.52707  -28.6753   19.3618  
H -2.00742    2.8117    1.26013     5.66506    2.11705   8.63965 
C -2.57616    2.60497  -0.723913  -68.0175   -21.495   -20.8698  
C -1.67518    0.791104  0.792661   29.7705    -8.35317  64.4219  
O -1.0883     0.466295  1.88063   -21.2813    13.2134  -46.2785  
H -3.67786    2.21463  -0.549198   44.8404    12.0215   -0.348312
H -2.70506    3.65323  -0.854486    1.65136   27.4364   -3.87183 
H -2.2557     2.18126  -1.66724     4.42558   -2.79556 -10.428   
N -2.29929   -0.120507  0.0404177 -17.0812    -3.87454 -27.6999  
H -2.65438    0.156188 -0.909979    9.62727   -7.40479  29.03    
C -2.21815   -1.54557   0.32375     8.60246  -27.4911   24.1928  
H -2.4416    -1.88166   1.37827    -0.330805  28.4326  -11.1037  
C -3.19361   -2.3145   -0.527069   63.6635   -35.3378  -39.9043  
C -0.772548  -2.15616   0.221297  -53.9447   -23.4352   27.7401  
O -0.554938  -3.21236   0.810024    4.05246   -5.16807   2.84638 
H -3.16969   -3.4039   -0.310755   10.2358     9.65318  -0.803297
H -4.1616    -2.06034  -0.348348  -70.0373    28.0149    9.88246 
H -2.93271   -2.18764  -1.61311    -8.98493   -2.45954  12.656   
N  0.0725532 -1.47771  -0.489272   33.5929    48.9558  -41.2727  
H -0.218842  -0.61655  -0.994485    2.53467  -10.4672   10.6479  
C  1.47198   -1.76868  -0.592237   28.2232     8.18782   0.013882
H  1.68412   -2.69285  -0.0562532  -6.69341  -15.0348   -4.13675 
C  1.92792   -1.81491  -2.05916     1.02876  -40.576    16.2205  
C  2.37371   -0.795963  0.228772   46.7522     7.18424 -38.0821  
O  3.58977   -0.61421  -0.062539  -35.9206   -12.4923    7.819   
H  3.00574   -2.07041  -2.08043    -7.64477   12.8081   -3.65582 
H  1.40377   -2.66319  -2.55853     2.19494   11.1823    3.09457 
H  1.66355   -0.887198 -2.53302     3.69765   13.8628  -11.4388  
N  1.79667   -0.150676  1.22661     6.79354    8.21773  26.5195  
H  0.819377  -0.236328  1.40257   -24.5519    -5.63989   3.6529  
C  2.50236    0.709264  2.14136    18.0525   -31.3652   14.668   
H  3.21252    0.258613  2.87692    -9.40443  -13.9714  -12.3417  
H  3.10978    1.40818   1.65124    19.5579    29.8434  -26.0918  
H  1.7903     1.191     2.73749   -30.7479    23.1816   20.4483  
42
Energy=-620695.463258 Properties=species:S:1:pos:R:3:forces:R:3
H  2.00688    3.00564  -1.88171    13.1378     1.9728     1.15373 
H  2.55457    1.68886  -0.800255   15.49     -17.5023    -0.863291
H  2.16973    3.28221  -0.100239    4.68399    3.30815   -0.509124
C  1.93974    2.55645  -0.882604  -39.3592    19.8591    -8.9756  
O  0.0452241  1.2652   -1.59813   -15.1186   -26.2741   -32.5315  
C  0.470789   2.11893  -0.84238    40.6151    -8.10355   10.8142  
N -0.274108   2.61781   0.135065    4.18237   47.2812    30.2763  
H  0.205498   3.2586    0.7736    -10.2913    -6.07508   -3.40816 
C -1.6551     2.29186   0.371817   -0.475434 -34.3772    31.6872  
H -2.01408    2.82403   1.25969     8.98654   -0.424116   6.18916 
C -2.57114    2.60245  -0.710894  -75.0373    -3.76327  -41.8033  
C -1.68014    0.798866  0.778295   35.5104   -12.7547    80.09    
O -1.09351    0.46738   1.88217   -27.016     16.7569   -60.5657  
H -3.66225    2.18565  -0.558388   43.2251    11.7078     2.23316 
H -2.74974    3.66525  -0.836419    5.00738   11.3346    -2.1332  
H -2.23922    2.195    -1.66633     2.91983    0.534775  -5.80079 
N -2.30456   -0.114166  0.0291802 -12.7812    -8.4438   -17.5446  
H -2.66203    0.152283 -0.91273     7.03917   -4.85237   22.0601  
C -2.21834   -1.54083   0.313257   11.349    -33.3684    29.7578  
H -2.42329   -1.92633   1.36253    -1.44934   35.7182   -11.495   
C -3.19575   -2.31108  -0.522065   20.0855   -27.0832   -35.6001  
C -0.766701  -2.15892   0.214183  -68.0123   -35.1012    38.7069  
O -0.558289  -3.2148    0.815765    3.6463     0.5067    -0.360995
H -3.18942   -3.40045  -0.303403   12.1021     9.70338   -0.288922
H -4.20593   -2.05576  -0.32915   -28.5145    18.4315     1.87961 
H -2.94059   -2.19371  -1.60762   -10.277     -1.97562   10.3366  
N  0.0694767 -1.48994  -0.491232   44.6552    57.0657   -49.3683  
H -0.222647  -0.640924 -1.01289     1.68113   -8.51348   10.687   
C  1.46541   -1.76996  -0.590378   39.4912     2.41175    4.00657 
H  1.70251   -2.68634  -0.0283683 -10.2513   -10.1375   -10.0568  
C  1.92499   -1.81947  -2.05959    -2.33874  -37.2548    16.7173  
C  2.37632   -0.796726  0.232528   58.499      9.77187  -47.5671  
O  3.60127   -0.605379 -0.0644732 -48.1259   -16.713     10.3227  
H  3.00054   -2.0864   -2.06988    -7.19704   15.6574    -4.91368 
H  1.40958   -2.68018  -2.54822     1.19702   12.1695     2.46383 
H  1.6403    -0.887337 -2.53834     7.54629    5.93759   -8.19034 
N  1.80664   -0.152984  1.22592   -18.8223     7.7872    37.0004  
H  0.803005  -0.218063  1.39381    -2.87242   -4.69663   -0.258087
C  2.49513    0.707334  2.14769    19.8       -4.97158   22.1476  
H  3.22039    0.298577  2.90407   -12.5933   -17.1414   -16.4734  
H  3.11       1.43861   1.66489     6.32817   17.3872   -17.6689  
H  1.75337    1.17918   2.75647   -16.6453    14.224      7.84696 
